@<TRIPOS>MOLECULE
Caffeine                                                                        
   24    25    0     0     0
SMALL
NO_CHARGES
****
alkaloid 
@<TRIPOS>ATOM
1     N1              -1.6926   0.5734   3.8550 N.am      1 ABCD   0.0000
2     C2              -1.6335  -0.7695   3.8545 C.2       1 ABCD   0.0000
3     N3              -0.4575  -1.4251   3.8619 N.am      1 ABCD   0.0000
4     C4               0.7331  -0.7167   3.8618 C.ar      1 ABCD   0.0000
5     C5               0.6871   0.6718   3.8621 C.AR      1 ABCD   0.0000
6     C6              -0.5676   1.3184   3.8614 C.2       1 ABCD   0.0000
7     N7               1.9989   1.1019   3.8625 N.pl3     1 ABCD   0.0000
8     C8               2.7744   0.0000   3.8625 C.2       1 ABCD   0.0000
9     N9               2.0210  -1.0700   3.8620 N.2       1 ABCD   0.0000
10    O10             -0.6340   2.5346   3.8617 O.2       1 ABCD   0.0000
11    C11             -2.9981   1.2381   3.8486 C.3       1 ABCD   0.0000
12    C12              2.4603   2.4923   3.8626 C.3       1 ABCD   0.0000
13    O13             -2.6682  -1.4082   3.8485 O.2       1 ABCD   0.0000
14    C14             -0.4369  -2.8900   3.8615 C.3       1 ABCD   0.0000
15    H15             -3.7882   0.4872   3.8438 H         1 ABCD   0.0000
16    H16             -3.0842   1.8615   2.9587 H         1 ABCD   0.0000
17    H17             -3.0935   1.8600   4.7386 H         1 ABCD   0.0000
18    H18              2.5751   2.8370   2.8349 H         1 ABCD   0.0000
19    H19              3.4192   2.5570   4.3768 H         1 ABCD   0.0000
20    H20              1.7299   3.1175   4.3761 H         1 ABCD   0.0000
21    H21              3.8544   0.0000   3.8625 H         1 ABCD   0.0000
22    H22             -1.4595  -3.2677   3.8618 H         1 ABCD   0.0000
23    H23              0.0822  -3.2462   4.7514 H         1 ABCD   0.0000
24    H24              0.0817  -3.2459   2.9714 H         1 ABCD   0.0000
@<TRIPOS>BOND
1     1     2     1
2     1     6     1
3     1     11    1
4     2     3     1
5     2     13    2
6     3     4     1
7     3     14    1
8     4     5     1
9     4     9     1
10    5     6     1
11    5     7     1
12    6     10    2
13    7     8     1
14    7     12    1
15    8     9     2
16    8     21    1
17    11    15    1
18    11    16    1
19    11    17    1
20    12    18    1
21    12    19    1
22    12    20    1
23    14    22    1
24    14    23    1
25    14    24    1
