@<TRIPOS>MOLECULE
Methane                                                                         
    5     4    0     0     0
SMALL
NO_CHARGES
****
CH4
@<TRIPOS>ATOM
1     C1               0.0000  -0.0000   0.0000 C.3       1 MET  -0.0780
2     H2               0.1640  -0.6542   0.8840 H         1 MET   0.0195
3     H3              -0.7245  -0.4847  -0.6904 H         1 MET   0.0195
4     H4               0.9657   0.1588  -0.5280 H         1 MET   0.0195
5     H5              -0.4053   0.9801   0.3342 H         1 MET   0.0195
@<TRIPOS>BOND
1     1     2     1
2     1     3     1
3     1     4     1
4     1     5     1
@<ATOMSMITH>PICTURE
C:\Program Files\Bitwixt\Atomsmith\MoleculeLibrary\Alkanes\pix\methane_01.jpg